**** Created by MC2: Version 2012.02.00.d on 2024/05/10, 14:39:06 

************************************************************************
* AUCDL NETLIST:
* 
* LIBRARY NAME:  N28HP_SP_LEAFCELLS
* TOP CELL NAME: LEAFCELLS_DR
* VIEW NAME:     SCHEMATIC
* NETLISTED ON:  JAN 18 15:09:47 2013
************************************************************************

*.EQUATION
*.SCALE METER
.PARAM


*.PIN VSS

************************************************************************
* LIBRARY NAME: N28_LOGIC_MAC
* CELL NAME:    NOR_BULK
* VIEW NAME:    SCHEMATIC
************************************************************************

.SUBCKT S1BHVTSSO8000Y12_NOR_BULK A B G GB P PB Y
*.PININFO A:I B:I G:I GB:I P:I PB:I Y:O
M1 NET021 A P PB pch_hvt_mac L=LP1 W=WP1 M=MULTI*FP1
M3 Y B NET021 PB pch_hvt_mac L=LP2 W=WP2 M=MULTI*FP2
M5 Y B G GB nch_hvt_mac L=LN2 W=WN2 M=MULTI*FN2
M7 Y A G GB nch_hvt_mac L=LN1 W=WN1 M=MULTI*FN1
.ENDS

.SUBCKT S1BHVTSSO8000Y12_NOR_BULK_SVT A B G GB P PB Y
*.PININFO A:I B:I G:I GB:I P:I PB:I Y:O
M1 NET021 A P PB pch_mac L=LP1 W=WP1 M=MULTI*FP1
M3 Y B NET021 PB pch_mac L=LP2 W=WP2 M=MULTI*FP2
M5 Y B G GB nch_mac L=LN2 W=WN2 M=MULTI*FN2
M7 Y A G GB nch_mac L=LN1 W=WN1 M=MULTI*FN1
.ENDS

************************************************************************
* LIBRARY NAME: N28_LOGIC_MAC
* CELL NAME:    INV_BULK
* VIEW NAME:    SCHEMATIC
************************************************************************

.SUBCKT S1BHVTSSO8000Y12_INV_BULK A G GB P PB Y
*.PININFO A:I G:I GB:I P:I PB:I Y:O
M1 Y A P PB pch_hvt_mac L=LP W=WP M=MULTI*FP
M3 Y A G GB nch_hvt_mac L=LN W=WN M=MULTI*FN
.ENDS

.SUBCKT S1BHVTSSO8000Y12_INV_BULK_SVT A G GB P PB Y
*.PININFO A:I G:I GB:I P:I PB:I Y:O
M1 Y A P PB pch_mac L=LP W=WP M=MULTI*FP
M3 Y A G GB nch_mac L=LN W=WN M=MULTI*FN
.ENDS

************************************************************************
* LIBRARY NAME: N28_LOGIC_MAC
* CELL NAME:    NAND_BULK
* VIEW NAME:    SCHEMATIC
************************************************************************

.SUBCKT S1BHVTSSO8000Y12_NAND_BULK A B G GB P PB Y
*.PININFO A:I B:I G:I GB:I P:I PB:I Y:O
M1 Y A P PB pch_hvt_mac L=LP1 W=WP1 M=MULTI*FP1
M4 Y B P PB pch_hvt_mac L=LP2 W=WP2 M=MULTI*FP2
M6 Y B NET9 GB nch_hvt_mac L=LN2 W=WN2 M=MULTI*FN2
M8 NET9 A G GB nch_hvt_mac L=LN1 W=WN1 M=MULTI*FN1
.ENDS

************************************************************************
* LIBRARY NAME: N28HP_SP_LEAFCELLS
* CELL NAME:    DOUT
* VIEW NAME:    SCHEMATIC
************************************************************************

.SUBCKT S1BHVTSSO8000Y12_DOUT AWT AWTD GBL GBLB Q SLP_Q VDDF VDDFHD VDDHD VDDI VSSI WLP_SAEB
*.PININFO AWT:I AWTD:I SLP_Q:I WLP_SAEB:I Q:O GBL:B GBLB:B VDDF:B VDDFHD:B 
*.PININFO VDDHD:B VDDI:B VSSI:B
XI163 AWTB DLRSB VSSI VSSI VDDHD VDDI DSLRP S1BHVTSSO8000Y12_NAND_BULK FN1=1 WN1=0.4U 
+ LN1=0.03U FN2=1 WN2=0.4U LN2=0.03U FP2=1 WP2=0.4U LP2=0.03U MULTI=1 FP1=1 
+ WP1=0.4U LP1=0.03U
MM15 QB QBB NET085 VDDI pch_hvt_mac L=30N W=0.375U M=8
MM7 NET0102 DSLRP VDDHD VDDI pch_hvt_mac L=30N W=1U M=2
MM6 NET0101 DSLRP VDDHD VDDI pch_hvt_mac L=30N W=1U M=2
MM4 IOBL GBL NET0101 VDDI pch_hvt_mac L=30N W=0.5U M=4
MM22 IOBL AWTB NET0136 VDDI pch_hvt_mac L=30N W=0.5U M=2
MM20 NET084 QB VDDHD VDDI pch_hvt_mac L=30N W=0.5U M=2
MM23 NET0136 AWTD VDDHD VDDI pch_hvt_mac L=30N W=0.5U M=2
MM24 IOBLB AWTB NET0128 VDDI pch_hvt_mac L=30N W=0.5U M=2
MM5 IOBLB GBLB NET0102 VDDI pch_hvt_mac L=30N W=0.5U M=4
MM25 NET0128 AWTDB VDDHD VDDI pch_hvt_mac L=30N W=0.5U M=2
MM19 QBB IOBL NET084 VDDI pch_hvt_mac L=30N W=0.25U M=4
MP8_MIXV_SLS GBL DLRSB VDDHD VDDI pch_mac L=30N W=0.9U M=5
MP7_MIXV_SLS VDDHD DLRSB GBLB VDDI pch_mac L=30N W=0.9U M=5
MP6 VDDHD GBLB GBL VDDI pch_hvt_mac L=30N W=120N M=1
MP0 GBLB GBL VDDHD VDDI pch_hvt_mac L=30N W=120N M=1
MM16 NET085 IOBLB VDDHD VDDI pch_hvt_mac L=30N W=0.75U M=4
MM12 Q SLP_Q VSSI VSSI nch_hvt_mac L=30N W=400N M=1
MM14 QB QBB VSSI VSSI nch_hvt_mac L=30N W=250N M=1
MM13 QB IOBLB VSSI VSSI nch_hvt_mac L=30N W=0.25U M=4
MM11 IOBLB DSLRN VSSI VSSI nch_hvt_mac L=30N W=250N M=1
MM10 IOBLB IOBL VSSI VSSI nch_hvt_mac L=30N W=120N M=1
MM9 IOBL IOBLB VSSI VSSI nch_hvt_mac L=30N W=120N M=1
MM8 IOBL DSLRN VSSI VSSI nch_hvt_mac L=30N W=250N M=1
MM27 IOBLB SLP_Q VSSI VSSI nch_hvt_mac L=30N W=200N M=1
MM26 QBB SLP_Q VSSI VSSI nch_hvt_mac L=30N W=400N M=1
MM18 QBB QB VSSI VSSI nch_hvt_mac L=30N W=250N M=1
MM17 QBB IOBL VSSI VSSI nch_hvt_mac L=30N W=0.25U M=4
XI166 AWTD VSSI VSSI VDDHD VDDI AWTDB S1BHVTSSO8000Y12_INV_BULK FN=1 WN=0.2U LN=0.03U MULTI=1 
+ FP=1 WP=0.4U LP=0.03U
XI162 QB VSSI VSSI VDDFHD VDDF Q S1BHVTSSO8000Y12_INV_BULK FN=1 WN=0.8U LN=0.03U MULTI=1 FP=4 
+ WP=0.4U LP=0.03U
XI165 AWT VSSI VSSI VDDHD VDDI AWTB S1BHVTSSO8000Y12_INV_BULK FN=1 WN=0.2U LN=0.03U MULTI=1 
+ FP=1 WP=0.4U LP=0.03U
XI160 WLP_SAEB VSSI VSSI VDDHD VDDI DLRSB S1BHVTSSO8000Y12_INV_BULK FN=1 WN=0.2U LN=0.03U 
+ MULTI=1 FP=1 WP=0.4U LP=0.03U
XI164 DLRSB AWT VSSI VSSI VDDHD VDDI DSLRN S1BHVTSSO8000Y12_NOR_BULK FN1=1 WN1=0.4U LN1=0.03U 
+ FN2=1 WN2=0.4U LN2=0.03U FP2=1 WP2=0.4U LP2=0.03U MULTI=1 FP1=1 WP1=0.4U 
+ LP1=0.03U
.ENDS

************************************************************************
* LIBRARY NAME: N28HP_SP_LEAFCELLS
* CELL NAME:    DIN_WOBIST
* VIEW NAME:    SCHEMATIC
************************************************************************

.SUBCKT S1BHVTSSO8000Y12_DIN_WOBIST AWTD BWEB BWEBM CKD D DM GW GWB SLP_Q VDDHD VDDI VSSI
*.PININFO BWEB:I BWEBM:I CKD:I D:I DM:I SLP_Q:I AWTD:O GW:O GWB:O VDDHD:B 
*.PININFO VDDI:B VSSI:B
XI339 BX4L SLP_Q VSSI VSSI VDDHD VDDI BX4L1B S1BHVTSSO8000Y12_NOR_BULK FN1=1 WN1=0.27U 
+ LN1=0.03U FN2=1 WN2=0.27U LN2=0.03U FP2=1 WP2=0.52U LP2=0.03U MULTI=1 FP1=1 
+ WP1=0.52U LP1=0.03U
MP1 DX4L3B_AND CKD2 VDDI VDDI pch_hvt_mac L=30N W=350N M=1
MM27 DX4L DX4 Z9 VDDI pch_hvt_mac L=30N W=200N M=1
MM40 BX4L CKD1B Z16 VDDI pch_hvt_mac L=30N W=200N M=1
MM39 VDDHD BX4L1B Z16 VDDI pch_hvt_mac L=30N W=200N M=1
MM38 VDDHD CKD2 Z13 VDDI pch_hvt_mac L=30N W=200N M=1
MM26 VDDHD CKD2 Z9 VDDI pch_hvt_mac L=30N W=200N M=1
MM54 DX4L3B_AND BX4L1B VDDI VDDI pch_hvt_mac L=30N W=350N M=1
MM53 DX4L2_AND BX4L1B VDDI VDDI pch_hvt_mac L=30N W=350N M=1
MM52 DX4L2_AND DX4L1B VDDI VDDI pch_hvt_mac L=30N W=350N M=1
MM51 DX4L3B_AND DX4L2 VDDI VDDI pch_hvt_mac L=30N W=350N M=1
MP10 DX4L2_AND CKD2 VDDI VDDI pch_hvt_mac L=30N W=350N M=1
MM28 VDDHD DX4L1B Z6 VDDI pch_hvt_mac L=30N W=200N M=1
MP5 AWTD DX4 Z19 VDDI pch_hvt_mac L=30N W=270N M=1
MP4 Z19 BX1B VDDHD VDDI pch_hvt_mac L=30N W=270N M=1
MP3 Z18 BX4 VDDHD VDDI pch_hvt_mac L=30N W=270N M=1
MP2 AWTD DX1B Z18 VDDI pch_hvt_mac L=30N W=270N M=1
MM41 BX4L BX4 Z13 VDDI pch_hvt_mac L=30N W=200N M=1
MM29 DX4L CKD1B Z6 VDDI pch_hvt_mac L=30N W=200N M=1
MN6 AWTD DX1B Z20 VSSI nch_hvt_mac L=30N W=135N M=1
MN13 Z20 DX4 VSSI VSSI nch_hvt_mac L=30N W=135N M=1
MM42 BX4L BX4 Z15 VSSI nch_hvt_mac L=30N W=120N M=1
MM43 VSSI CKD1B Z15 VSSI nch_hvt_mac L=30N W=120N M=1
MM37 VSSI DX4L1B Z7 VSSI nch_hvt_mac L=30N W=120N M=1
MN2 Z2 CKD2 Z1 VSSI nch_hvt_mac L=30N W=750N M=2
MM34 DX4L DX4 Z11 VSSI nch_hvt_mac L=30N W=120N M=1
MM36 VSSI CKD1B Z11 VSSI nch_hvt_mac L=30N W=120N M=1
MN33 DX4L3B_AND DX4L2 Z2 VSSI nch_hvt_mac L=30N W=375N M=2
MM35 DX4L CKD2 Z7 VSSI nch_hvt_mac L=30N W=120N M=1
MN1 DX4L2_AND DX4L1B Z2 VSSI nch_hvt_mac L=30N W=375N M=2
MN7 Z1 BX4L1B VSSI VSSI nch_hvt_mac L=30N W=750N M=4
MM45 BX4L CKD2 Z14 VSSI nch_hvt_mac L=30N W=120N M=1
MM44 VSSI BX4L1B Z14 VSSI nch_hvt_mac L=30N W=120N M=1
MN4 Z20 BX1B VSSI VSSI nch_hvt_mac L=30N W=135N M=1
MN5 AWTD BX4 Z20 VSSI nch_hvt_mac L=30N W=135N M=1
XI331 DX4L1B VSSI VSSI VDDHD VDDI DX4L2 S1BHVTSSO8000Y12_INV_BULK FN=2 WN=0.135U LN=0.03U 
+ MULTI=1 FP=1 WP=0.54U LP=0.03U
XI314 CKD VSSI VSSI VDDHD VDDI CKD1B S1BHVTSSO8000Y12_INV_BULK FN=1 WN=0.14U LN=0.03U MULTI=1 
+ FP=1 WP=0.2U LP=0.03U
XI317 CKD1B VSSI VSSI VDDHD VDDI CKD2 S1BHVTSSO8000Y12_INV_BULK FN=2 WN=0.19U LN=0.03U 
+ MULTI=1 FP=2 WP=0.27U LP=0.03U
XI329 DX4L VSSI VSSI VDDHD VDDI DX4L1B S1BHVTSSO8000Y12_INV_BULK FN=1 WN=0.27U LN=0.03U 
+ MULTI=1 FP=1 WP=0.54U LP=0.03U
XI326 BX1B VSSI VSSI VDDHD VDDI BX4 S1BHVTSSO8000Y12_INV_BULK FN=1 WN=0.12U LN=0.03U MULTI=1 
+ FP=1 WP=0.12U LP=0.03U
XI322 DX1B VSSI VSSI VDDHD VDDI DX4 S1BHVTSSO8000Y12_INV_BULK FN=1 WN=0.12U LN=0.03U MULTI=1 
+ FP=1 WP=0.12U LP=0.03U
XI333 DX4L3B_AND VSSI VSSI VDDHD VDDI GW S1BHVTSSO8000Y12_INV_BULK FN=10 WN=0.15U LN=0.03U 
+ MULTI=1 FP=10 WP=0.45U LP=0.03U
XI325 BWEB VSSI VSSI VDDHD VDDI BX1B S1BHVTSSO8000Y12_INV_BULK FN=1 WN=0.12U LN=0.03U MULTI=1 
+ FP=1 WP=0.12U LP=0.03U
XI321 D VSSI VSSI VDDHD VDDI DX1B S1BHVTSSO8000Y12_INV_BULK FN=1 WN=0.12U LN=0.03U MULTI=1 
+ FP=1 WP=0.12U LP=0.03U
XI332 DX4L2_AND VSSI VSSI VDDHD VDDI GWB S1BHVTSSO8000Y12_INV_BULK FN=10 WN=0.15U LN=0.03U 
+ MULTI=1 FP=10 WP=0.45U LP=0.03U
.ENDS

************************************************************************
* LIBRARY NAME: N28HP_SP_LEAFCELLS
* CELL NAME:    IO_WOBIST
* VIEW NAME:    SCHEMATIC
************************************************************************

.SUBCKT S1BHVTSSO8000Y12_IO_WOBIST AWT BWEB BWEBM CKD D DM GBL GBLB GW GWB Q SLP_Q VDDF VDDFHD 
+ VDDHD VDDI VSSI WLP_SAEB
*.PININFO AWT:I BWEB:I BWEBM:I CKD:I D:I DM:I SLP_Q:I WLP_SAEB:I GW:O GWB:O 
*.PININFO Q:O GBL:B GBLB:B VDDF:B VDDFHD:B VDDHD:B VDDI:B VSSI:B
XDOUT AWT AWTD GBL GBLB Q SLP_Q VDDF VDDFHD VDDHD VDDI VSSI WLP_SAEB S1BHVTSSO8000Y12_DOUT
XDIN AWTD BWEB BWEBM CKD D DM GW GWB SLP_Q VDDHD VDDI VSSI S1BHVTSSO8000Y12_DIN_WOBIST
.ENDS

************************************************************************
* LIBRARY NAME: N28HP_SP_LEAFCELLS
* CELL NAME:    IO_M16_WOBIST
* VIEW NAME:    SCHEMATIC
************************************************************************

.SUBCKT S1BHVTSSO8000Y12_IO_M16_WOBIST AWT BWEB BWEBM CKD D DM GBL GBLB GW GWB IOPD PDI PDO Q 
+ SLP_Q VDDF VDDFHD VDDHD VDDI VSSI WLP_SAEB
*.PININFO AWT:I BWEB:I BWEBM:I CKD:I D:I DM:I IOPD:I PDI:I SLP_Q:I WLP_SAEB:I 
*.PININFO GW:O GWB:O PDO:O Q:O GBL:B GBLB:B VDDF:B VDDFHD:B VDDHD:B VDDI:B 
*.PININFO VSSI:B
XI1_MIXV_SLS PDI IOPD VSSI VSSI VDDI VDDI NET45 S1BHVTSSO8000Y12_NOR_BULK_SVT FN1=1 WN1=0.5U 
+ LN1=0.035U FN2=1 WN2=0.5U LN2=0.035U FP2=1 WP2=1U LP2=0.035U MULTI=1 FP1=1 
+ WP1=1U LP1=0.035U
MP1 VDDHD PDO VDDI VDDI pch_hvt_mac L=35.0N W=1U M=20
XI159_MIXV_SLS NET45 VSSI VSSI VDDI VDDI PDO S1BHVTSSO8000Y12_INV_BULK_SVT FN=8 WN=0.5U LN=0.035U 
+ MULTI=1 FP=8 WP=1U LP=0.035U
XIO AWT BWEB BWEBM CKD D DM GBL GBLB GW GWB Q SLP_Q VDDF VDDFHD VDDHD VDDI 
+ VSSI WLP_SAEB S1BHVTSSO8000Y12_IO_WOBIST
.ENDS

************************************************************************
* LIBRARY NAME: N28_LOGIC_MAC
* CELL NAME:    TRI_BULK
* VIEW NAME:    SCHEMATIC
************************************************************************

.SUBCKT S1BHVTSSO8000Y12_TRI_BULK A G GB P PB SEL SELB Y
*.PININFO A:I G:I GB:I P:I PB:I SEL:I SELB:I Y:O
M1 NET016 SELB P PB pch_hvt_mac L=LP W=WP M=MULTI*FP
MP0 Y A NET016 PB pch_hvt_mac L=LP W=WP M=MULTI*FP
M3 NET7 SEL G GB nch_hvt_mac L=LN W=WN M=MULTI*FN
MN0 Y A NET7 GB nch_hvt_mac L=LN W=WN M=MULTI*FN
.ENDS

************************************************************************
* LIBRARY NAME: N28HP_SP_LEAFCELLS
* CELL NAME:    LCTRL_PM
* VIEW NAME:    SCHEMATIC
************************************************************************

.SUBCKT S1BHVTSSO8000Y12_LCTRL_PM DSLP_BUF LIOPD SLP_LCTRL VDDI VSSI
*.PININFO DSLP_BUF:I SLP_LCTRL:I LIOPD:O VDDI:B VSSI:B
MM0 NET087 DSLP_BUFB VDDI VDDI pch_hvt_mac L=30N W=0.5U M=2
MM1 NET087 NET77 VSSI VSSI nch_hvt_mac L=30N W=500N M=1
XI251 CTRLB VSSI VSSI VDDI VDDI CTRL S1BHVTSSO8000Y12_INV_BULK FN=2 WN=0.3U LN=0.03U MULTI=1 
+ FP=2 WP=0.6U LP=0.03U
XI232 DSLP_BUFB VSSI VSSI VDDI VDDI LIOPD S1BHVTSSO8000Y12_INV_BULK FN=1 WN=0.3U LN=0.03U 
+ MULTI=1 FP=2 WP=0.6U LP=0.03U
XI230 NET087 VSSI VSSI VDDI VDDI NET97 S1BHVTSSO8000Y12_INV_BULK FN=2 WN=0.3U LN=0.03U 
+ MULTI=1 FP=2 WP=0.6U LP=0.03U
XI233 DSLP_BUF VSSI VSSI VDDI VDDI DSLP_BUFB S1BHVTSSO8000Y12_INV_BULK FN=2 WN=0.3U LN=0.03U 
+ MULTI=1 FP=1 WP=0.6U LP=0.03U
XI234 SLP_LCTRL DSLP_BUF VSSI VSSI VDDI VDDI NET77 S1BHVTSSO8000Y12_NOR_BULK FN1=1 WN1=0.3U 
+ LN1=0.03U FN2=1 WN2=0.3U LN2=0.03U FP2=1 WP2=0.3U LP2=0.03U MULTI=1 FP1=1 
+ WP1=0.3U LP1=0.03U
XI250 SLP_LCTRL DSLP_BUFB VSSI VSSI VDDI VDDI CTRLB S1BHVTSSO8000Y12_NAND_BULK FN1=1 WN1=0.3U 
+ LN1=0.03U FN2=1 WN2=0.3U LN2=0.03U FP2=1 WP2=0.3U LP2=0.03U MULTI=1 FP1=1 
+ WP1=0.3U LP1=0.03U
XI237 NET97 VSSI VSSI VDDI VDDI CTRL CTRLB NET087 S1BHVTSSO8000Y12_TRI_BULK FN=1 WN=0.12U 
+ LN=0.03U MULTI=1 FP=1 WP=0.12U LP=0.03U
.ENDS

************************************************************************
* LIBRARY NAME: N28HP_SP_LEAFCELLS
* CELL NAME:    XDRV_READ
* VIEW NAME:    SCHEMATIC
************************************************************************

.SUBCKT S1BHVTSSO8000Y12_XDRV_READ BS PD_BUF SAEB VDDHD VDDI VSSI WLP_SAE
*.PININFO BS:I PD_BUF:I WLP_SAE:I SAEB:O VDDHD:B VDDI:B VSSI:B
XNAND0_MIXV_SLH BS WLP_SAE VSSI VSSI VDDHD VDDI BS_WLPSAEB S1BHVTSSO8000Y12_NAND_BULK FN1=3 
+ WN1=1U LN1=0.03U FN2=3 WN2=1U LN2=0.03U FP2=2 WP2=0.75U LP2=0.03U MULTI=1 
+ FP1=2 WP1=0.75U LP1=0.03U
XI426_MIXV_SLH BS_WLPSAEB VSSI VSSI VDDHD VDDI SAEB S1BHVTSSO8000Y12_INV_BULK FN=4 WN=0.9U 
+ LN=0.03U MULTI=1 FP=7 WP=1U LP=0.03U
MN1_MIXV_SLH SAEB PD_BUF VSSI VSSI nch_hvt_mac L=30N W=120N M=1
.ENDS

************************************************************************
* LIBRARY NAME: N28HP_SP_LEAFCELLS
* CELL NAME:    XDRV_Y10
* VIEW NAME:    SCHEMATIC
************************************************************************

.SUBCKT S1BHVTSSO8000Y12_XDRV_Y10 PD_BUF VDDHD VDDI VSSI WLPY YIN[0] YIN[1] YOUT[0] YOUT[1]
*.PININFO PD_BUF:I WLPY:I YIN[0]:I YIN[1]:I YOUT[0]:O YOUT[1]:O VDDHD:B VDDI:B 
*.PININFO VSSI:B
MM8 MWL2[1] WLPY VDDHD VDDI pch_hvt_mac L=30N W=1U M=1
MM6 YOUT[1] MWL2[1] VDDHD VDDI pch_hvt_mac L=30N W=1U M=11
MP31 SHARE WLPY VDDHD VDDI pch_hvt_mac L=30N W=150N M=2
MM3 MWL2[0] WLPY VDDHD VDDI pch_hvt_mac L=30N W=1U M=1
MM1 MWL2[0] YIN[0] VDDHD VDDI pch_hvt_mac L=30N W=1U M=1
MM9 MWL2[1] YIN[1] VDDHD VDDI pch_hvt_mac L=30N W=1U M=1
MM4 YOUT[0] MWL2[0] VDDHD VDDI pch_hvt_mac L=30N W=1U M=11
MN21 SHARE WLPY VSSI VSSI nch_hvt_mac L=30N W=1U M=2
MM2 MWL2[0] YIN[0] SHARE VSSI nch_hvt_mac L=30N W=1U M=1
MM0 YOUT[1] PD_BUF VSSI VSSI nch_hvt_mac L=30N W=120N M=1
MN3 YOUT[0] PD_BUF VSSI VSSI nch_hvt_mac L=30N W=120N M=1
MM5 YOUT[0] MWL2[0] VSSI VSSI nch_hvt_mac L=30N W=1U M=5
MM7 YOUT[1] MWL2[1] VSSI VSSI nch_hvt_mac L=30N W=1U M=5
MM10 MWL2[1] YIN[1] SHARE VSSI nch_hvt_mac L=30N W=1U M=1
.ENDS

************************************************************************
* LIBRARY NAME: N28HP_SP_LEAFCELLS
* CELL NAME:    XDRV_Y4
* VIEW NAME:    SCHEMATIC
************************************************************************

.SUBCKT S1BHVTSSO8000Y12_XDRV_Y4 PD_BUF VDDHD VDDI VSSI WLPY YIN[0] YIN[1] YIN[2] YIN[3] 
+ YOUT[0] YOUT[1] YOUT[2] YOUT[3]
*.PININFO PD_BUF:I WLPY:I YIN[0]:I YIN[1]:I YIN[2]:I YIN[3]:I YOUT[0]:O 
*.PININFO YOUT[1]:O YOUT[2]:O YOUT[3]:O VDDHD:B VDDI:B VSSI:B
MM34 YOUT[3] MWL2[3] VSSI VSSI nch_hvt_mac L=30N W=0.73U M=8
MM31 MWL2[3] YIN[3] SHARE VSSI nch_hvt_mac L=30N W=0.72U M=4
MM29 YOUT[2] PD_BUF VSSI VSSI nch_hvt_mac L=30N W=120N M=1
MM28 MWL2[2] YIN[2] SHARE VSSI nch_hvt_mac L=30N W=0.72U M=4
MM23 YOUT[1] MWL2[1] VSSI VSSI nch_hvt_mac L=30N W=0.73U M=8
MM19 YOUT[1] PD_BUF VSSI VSSI nch_hvt_mac L=30N W=120N M=1
MM26 YOUT[2] MWL2[2] VSSI VSSI nch_hvt_mac L=30N W=0.73U M=8
MN3 YOUT[0] PD_BUF VSSI VSSI nch_hvt_mac L=30N W=120N M=1
MM36 YOUT[3] PD_BUF VSSI VSSI nch_hvt_mac L=30N W=120N M=1
MM2 MWL2[0] YIN[0] SHARE VSSI nch_hvt_mac L=30N W=0.72U M=4
MM5 YOUT[0] MWL2[0] VSSI VSSI nch_hvt_mac L=30N W=0.73U M=8
MN21 SHARE WLPY VSSI VSSI nch_hvt_mac L=30N W=0.8U M=8
MM21 MWL2[1] YIN[1] SHARE VSSI nch_hvt_mac L=30N W=0.72U M=4
MM1 MWL2[0] YIN[0] VDDHD VDDI pch_hvt_mac L=30N W=0.68U M=3
MM24 YOUT[1] MWL2[1] VDDHD VDDI pch_hvt_mac L=30N W=0.8U M=14
MM3 MWL2[0] WLPY VDDHD VDDI pch_hvt_mac L=30N W=0.68U M=3
MM25 YOUT[2] MWL2[2] VDDHD VDDI pch_hvt_mac L=30N W=0.8U M=14
MP31 SHARE WLPY VDDHD VDDI pch_hvt_mac L=30N W=150N M=2
MM4 YOUT[0] MWL2[0] VDDHD VDDI pch_hvt_mac L=30N W=0.8U M=14
MM32 MWL2[3] YIN[3] VDDHD VDDI pch_hvt_mac L=30N W=0.68U M=3
MM30 MWL2[2] WLPY VDDHD VDDI pch_hvt_mac L=30N W=0.68U M=3
MM20 MWL2[1] WLPY VDDHD VDDI pch_hvt_mac L=30N W=0.68U M=3
MM33 MWL2[3] WLPY VDDHD VDDI pch_hvt_mac L=30N W=0.68U M=3
MM35 YOUT[3] MWL2[3] VDDHD VDDI pch_hvt_mac L=30N W=0.8U M=14
MM27 MWL2[2] YIN[2] VDDHD VDDI pch_hvt_mac L=30N W=0.68U M=3
MM22 MWL2[1] YIN[1] VDDHD VDDI pch_hvt_mac L=30N W=0.68U M=3
.ENDS

************************************************************************
* LIBRARY NAME: N28HP_SP_LEAFCELLS
* CELL NAME:    LCTRL
* VIEW NAME:    SCHEMATIC
************************************************************************

.SUBCKT S1BHVTSSO8000Y12_LCTRL BLEQB_DN BLEQB_UP DEC_X3_DN DEC_X3_UP DEC_Y[0] DEC_Y[1] DEC_Y[2] 
+ DEC_Y[3] DEC_Y[4] DEC_Y[5] DEC_Y[6] DEC_Y[7] DEC_Y_DN[0] DEC_Y_DN[1] 
+ DEC_Y_DN[2] DEC_Y_DN[3] DEC_Y_DN[4] DEC_Y_DN[5] DEC_Y_DN[6] DEC_Y_DN[7] 
+ DEC_Y_UP[0] DEC_Y_UP[1] DEC_Y_UP[2] DEC_Y_UP[3] DEC_Y_UP[4] DEC_Y_UP[5] 
+ DEC_Y_UP[6] DEC_Y_UP[7] PD_BUF RE RE_LIO SAEB VDDHD VDDI VSSI WE WE_LIO 
+ WLP_SAE YL[0] YL[1] YL_LIO[0] YL_LIO[1]
*.PININFO BLEQB_DN:I BLEQB_UP:I DEC_X3_DN:I DEC_X3_UP:I DEC_Y[0]:I DEC_Y[1]:I 
*.PININFO DEC_Y[2]:I DEC_Y[3]:I DEC_Y[4]:I DEC_Y[5]:I DEC_Y[6]:I DEC_Y[7]:I 
*.PININFO PD_BUF:I RE:I WE:I WLP_SAE:I YL[0]:I YL[1]:I DEC_Y_DN[0]:O 
*.PININFO DEC_Y_DN[1]:O DEC_Y_DN[2]:O DEC_Y_DN[3]:O DEC_Y_DN[4]:O 
*.PININFO DEC_Y_DN[5]:O DEC_Y_DN[6]:O DEC_Y_DN[7]:O DEC_Y_UP[0]:O 
*.PININFO DEC_Y_UP[1]:O DEC_Y_UP[2]:O DEC_Y_UP[3]:O DEC_Y_UP[4]:O 
*.PININFO DEC_Y_UP[5]:O DEC_Y_UP[6]:O DEC_Y_UP[7]:O RE_LIO:O SAEB:O WE_LIO:O 
*.PININFO YL_LIO[0]:O YL_LIO[1]:O VDDHD:B VDDI:B VSSI:B
XNOR0_MIXV_SSH DEC_X3_UP DEC_X3_DN VSSI VSSI VDDHD VDDI BS0 S1BHVTSSO8000Y12_NOR_BULK FN1=1 
+ WN1=0.4U LN1=0.03U FN2=1 WN2=0.4U LN2=0.03U FP2=1 WP2=0.5U LP2=0.03U MULTI=1 
+ FP1=1 WP1=0.5U LP1=0.03U
XNAND0_MIXV_SSH BS0 BS5 VSSI VSSI VDDHD VDDI BSD S1BHVTSSO8000Y12_NAND_BULK FN1=1 WN1=0.3U 
+ LN1=0.03U FN2=1 WN2=0.3U LN2=0.03U FP2=1 WP2=0.75U LP2=0.03U MULTI=1 FP1=1 
+ WP1=0.75U LP1=0.03U
XXDRV_READ BSD PD_BUF SAEB VDDHD VDDI VSSI WLP_SAE S1BHVTSSO8000Y12_XDRV_READ
XXDRV_RW PD_BUF VDDHD VDDI VSSI BSD RE WE RE_LIO WE_LIO S1BHVTSSO8000Y12_XDRV_Y10
XXDRV_YL PD_BUF VDDHD VDDI VSSI BSD YL[0] YL[1] YL_LIO[0] YL_LIO[1] S1BHVTSSO8000Y12_XDRV_Y10
XINV4_MIXV_SSH BS4 VSSI VSSI VDDHD VDDI BS4B S1BHVTSSO8000Y12_INV_BULK FN=1 WN=0.12U LN=0.03U 
+ MULTI=1 FP=1 WP=0.12U LP=0.03U
XINV5_MIXV_SSH BS4B VSSI VSSI VDDHD VDDI BS5 S1BHVTSSO8000Y12_INV_BULK FN=1 WN=0.12U LN=0.03U 
+ MULTI=1 FP=1 WP=0.12U LP=0.03U
XINV0_MIXV_SSH BS0 VSSI VSSI VDDHD VDDI BS1B S1BHVTSSO8000Y12_INV_BULK FN=1 WN=0.12U LN=0.03U 
+ MULTI=1 FP=1 WP=0.12U LP=0.03U
XINV3_MIXV_SSH BS3B VSSI VSSI VDDHD VDDI BS4 S1BHVTSSO8000Y12_INV_BULK FN=1 WN=0.12U LN=0.03U 
+ MULTI=1 FP=1 WP=0.12U LP=0.03U
XINV2_MIXV_SSH BS2 VSSI VSSI VDDHD VDDI BS3B S1BHVTSSO8000Y12_INV_BULK FN=1 WN=0.12U LN=0.03U 
+ MULTI=1 FP=1 WP=0.12U LP=0.03U
XINV1_MIXV_SSH BS1B VSSI VSSI VDDHD VDDI BS2 S1BHVTSSO8000Y12_INV_BULK FN=1 WN=0.12U LN=0.03U 
+ MULTI=1 FP=1 WP=0.12U LP=0.03U
XXDRV_Y4_D[0] PD_BUF VDDHD VDDI VSSI BLEQB_DN DEC_Y[0] DEC_Y[1] DEC_Y[2] 
+ DEC_Y[3] DEC_Y_DN[0] DEC_Y_DN[1] DEC_Y_DN[2] DEC_Y_DN[3] S1BHVTSSO8000Y12_XDRV_Y4
XXDRV_Y4_D[1] PD_BUF VDDHD VDDI VSSI BLEQB_DN DEC_Y[4] DEC_Y[5] DEC_Y[6] 
+ DEC_Y[7] DEC_Y_DN[4] DEC_Y_DN[5] DEC_Y_DN[6] DEC_Y_DN[7] S1BHVTSSO8000Y12_XDRV_Y4
XXDRV_Y4_U[0] PD_BUF VDDHD VDDI VSSI BLEQB_UP DEC_Y[0] DEC_Y[1] DEC_Y[2] 
+ DEC_Y[3] DEC_Y_UP[0] DEC_Y_UP[1] DEC_Y_UP[2] DEC_Y_UP[3] S1BHVTSSO8000Y12_XDRV_Y4
XXDRV_Y4_U[1] PD_BUF VDDHD VDDI VSSI BLEQB_UP DEC_Y[4] DEC_Y[5] DEC_Y[6] 
+ DEC_Y[7] DEC_Y_UP[4] DEC_Y_UP[5] DEC_Y_UP[6] DEC_Y_UP[7] S1BHVTSSO8000Y12_XDRV_Y4
.ENDS

************************************************************************
* LIBRARY NAME: N28HP_SP_LEAFCELLS
* CELL NAME:    XDRV_LA512_SHA
* VIEW NAME:    SCHEMATIC
************************************************************************

.SUBCKT S1BHVTSSO8000Y12_XDRV_LA512_SHA DEC_X0[0] DEC_X0[1] DEC_X0[2] DEC_X0[3] DEC_X0[4] 
+ DEC_X0[5] DEC_X0[6] DEC_X0[7] DEC_X1[0] DEC_X1[1] DEC_X1[2] DEC_X1[3] 
+ DEC_X1[4] DEC_X1[5] DEC_X1[6] DEC_X1[7] DEC_X2[0] DEC_X2[1] DEC_X2[2] 
+ DEC_X2[3] DEC_X3[0] DEC_X3[1] DEC_X3[2] DEC_X3[3] DEC_X3[4] DEC_X3[5] 
+ DEC_X3[6] DEC_X3[7] DEC_Y[0] DEC_Y[1] DEC_Y[2] DEC_Y[3] DEC_Y[4] DEC_Y[5] 
+ DEC_Y[6] DEC_Y[7] DSLP_BUF RE SH_NPD SLP_LCTRL TK VDDHD VDDI VSSI WE 
+ WLOUT[0] WLOUT[1] WLPY WLPYB WLP_SAE WLP_SAE_TK YL[0] YL[1]
*.PININFO DSLP_BUF:I SLP_LCTRL:I WLPY:I WLPYB:I WLP_SAE:I WLOUT[0]:O 
*.PININFO WLOUT[1]:O DEC_X0[0]:B DEC_X0[1]:B DEC_X0[2]:B DEC_X0[3]:B 
*.PININFO DEC_X0[4]:B DEC_X0[5]:B DEC_X0[6]:B DEC_X0[7]:B DEC_X1[0]:B 
*.PININFO DEC_X1[1]:B DEC_X1[2]:B DEC_X1[3]:B DEC_X1[4]:B DEC_X1[5]:B 
*.PININFO DEC_X1[6]:B DEC_X1[7]:B DEC_X2[0]:B DEC_X2[1]:B DEC_X2[2]:B 
*.PININFO DEC_X2[3]:B DEC_X3[0]:B DEC_X3[1]:B DEC_X3[2]:B DEC_X3[3]:B 
*.PININFO DEC_X3[4]:B DEC_X3[5]:B DEC_X3[6]:B DEC_X3[7]:B DEC_Y[0]:B 
*.PININFO DEC_Y[1]:B DEC_Y[2]:B DEC_Y[3]:B DEC_Y[4]:B DEC_Y[5]:B DEC_Y[6]:B 
*.PININFO DEC_Y[7]:B RE:B SH_NPD:B TK:B VDDHD:B VDDI:B VSSI:B WE:B 
*.PININFO WLP_SAE_TK:B YL[0]:B YL[1]:B
MP20_MIXV_SLH WLOUT[0] MWL2 VDDHD VDDI pch_hvt_mac L=35.0N W=0.875U M=6
MP4 VDDHD SLP_LCTRL VDDI VDDI pch_hvt_mac L=35.0N W=0.75U M=4
MP7 MWL0 DEC_X1[0] VDDI VDDI pch_hvt_mac L=35.0N W=100N M=1
MP14 MWL0A DEC_X0[1] VDDI VDDI pch_hvt_mac L=35.0N W=100N M=1
MM1_MIXV_SLH WLOUT[1] MWL2A VDDHD VDDI pch_hvt_mac L=35.0N W=0.875U M=6
MM3 VDDI WLPY MWL2A VDDI pch_hvt_mac L=35.0N W=0.64U M=2
MM8 MWL2 MWL1 VDDI VDDI pch_hvt_mac L=35.0N W=0.5U M=2
MM5 MWL2A MWL1A VDDI VDDI pch_hvt_mac L=35.0N W=0.5U M=2
MP19 VDDI WLPY MWL2 VDDI pch_hvt_mac L=35.0N W=0.64U M=2
MP13 MWL0A DEC_X1[0] VDDI VDDI pch_hvt_mac L=35.0N W=100N M=1
MP6 MWL0 DEC_X0[0] VDDI VDDI pch_hvt_mac L=35.0N W=100N M=1
MN7 MWL0A DEC_X0[1] SH_NPD VSSI nch_hvt_mac L=35.0N W=100N M=1
MN0 MWL2 MWL1 WLPYB VSSI nch_hvt_mac L=35.0N W=0.9U M=2
MP9 MWL0 DEC_X0[0] SH_NPD VSSI nch_hvt_mac L=35.0N W=100N M=1
MM2_MIXV_SLH WLOUT[1] MWL2A VSSI VSSI nch_hvt_mac L=35.0N W=0.65U M=4
MM4 MWL2A MWL1A WLPYB VSSI nch_hvt_mac L=35.0N W=0.9U M=2
MN6_MIXV_SLH WLOUT[0] MWL2 VSSI VSSI nch_hvt_mac L=35.0N W=0.65U M=4
XI426 MWL0A VSSI VSSI VDDHD VDDI MWL1A S1BHVTSSO8000Y12_INV_BULK FN=1 WN=0.39U LN=0.03U 
+ MULTI=1 FP=1 WP=0.565U LP=0.03U
XI425 MWL0 VSSI VSSI VDDHD VDDI MWL1 S1BHVTSSO8000Y12_INV_BULK FN=1 WN=0.39U LN=0.03U MULTI=1 
+ FP=1 WP=0.565U LP=0.03U
.ENDS

************************************************************************
* LIBRARY NAME: N28HP_SP_LEAFCELLS
* CELL NAME:    TKBL_EDGE
* VIEW NAME:    SCHEMATIC
************************************************************************

.SUBCKT S1BHVTSSO8000Y12_TKBL_EDGE BLB_EDGE BL_EDGE G_FLOAT VDDAI VDDI VSSI WL WL_TK TIEH
*.PININFO WL:I WL_TK:I BLB_EDGE:B BL_EDGE:B G_FLOAT:B VDDAI:B VDDI:B VSSI:B 
*.PININFO TIEH:B
MPCHPU1 BLB TIEH VDDAI VDDI pchpu_sr L=35N W=40N M=1
MPCHPU0 VDDAI BLB TIEH VDDI pchpu_sr L=35N W=40N M=1
MNCHPD1 BLB TIEH VSSI VSSI nchpd_sr L=35N W=95N M=1
MNCHPD0 G_FLOAT BLB TIEH VSSI nchpd_sr L=35N W=95N M=1
MNCHPG1 BLB WL BL_EDGE VSSI nchpg_sr L=35N W=65N M=1
MNCHPG0 BLB_EDGE WL TIEH VSSI nchpg_sr L=35N W=65N M=1
.ENDS

************************************************************************
* LIBRARY NAME: N28_LOGIC_MAC
* CELL NAME:    AINV
* VIEW NAME:    SCHEMATIC
************************************************************************

.SUBCKT S1BHVTSSO8000Y12_AINV A G V Y
*.PININFO A:I G:I V:I Y:O
M1 Y A V V pch_hvt_mac L=LP W=WP M=MULTI*FP
M3 Y A G G nch_hvt_mac L=LN W=WN M=MULTI*FN
.ENDS

************************************************************************
* LIBRARY NAME: N28HP_SP_LEAFCELLS
* CELL NAME:    DECB1_BS_SEG
* VIEW NAME:    SCHEMATIC
************************************************************************

.SUBCKT S1BHVTSSO8000Y12_DECB1_BS_SEG CKP CLK DEC EN ENC PREDEC VDDHD VDDI VSSI
*.PININFO CKP:I CLK:I EN:I ENC:I PREDEC:I DEC:O VDDHD:B VDDI:B VSSI:B
MM3 NT1 PREDEC VDDHD VDDI pch_hvt_mac L=30N W=400N M=1
MP5 NT1 EN VDDHD VDDI pch_hvt_mac L=30N W=400N M=2
MM2 NT1 CKP NET59 VDDI pch_hvt_mac L=30N W=400N M=1
MP0 DEC NT1 VDDHD VDDI pch_hvt_mac L=30N W=0.6U M=14
MM1 NET59 CLK VDDHD VDDI pch_hvt_mac L=30N W=400N M=1
MTN1 NT1 CKP NT3 VSSI nch_hvt_mac L=30N W=400N M=1
MTN2 NT3 PREDEC ENC VSSI nch_hvt_mac L=30N W=0.6U M=4
MM0 NT1 CLK NT3 VSSI nch_hvt_mac L=30N W=0.6U M=2
MN0 DEC NT1 VSSI VSSI nch_hvt_mac L=30N W=0.6U M=7
.ENDS

************************************************************************
* LIBRARY NAME: N28HP_SP_LEAFCELLS
* CELL NAME:    DECB1
* VIEW NAME:    SCHEMATIC
************************************************************************

.SUBCKT S1BHVTSSO8000Y12_DECB1 CKP CLK DEC EN ENC PREDEC VDDHD VDDI VSSI
*.PININFO CKP:I CLK:I EN:I ENC:I PREDEC:I DEC:O VDDHD:B VDDI:B VSSI:B
MTN1 NT1 CKP NT3 VSSI nch_hvt_mac L=30N W=400N M=1
MTN2 NT3 PREDEC ENC VSSI nch_hvt_mac L=30N W=0.6U M=4
MM0 NT1 CLK NT3 VSSI nch_hvt_mac L=30N W=0.6U M=2
MN0 DEC NT1 VSSI VSSI nch_hvt_mac L=30N W=0.6U M=7
MM1 NET65 CLK VDDHD VDDI pch_hvt_mac L=30N W=400N M=1
MM3 NT1 PREDEC VDDHD VDDI pch_hvt_mac L=30N W=400N M=1
MP0 DEC NT1 VDDHD VDDI pch_hvt_mac L=30N W=0.6U M=14
MP5 NT1 EN VDDHD VDDI pch_hvt_mac L=30N W=400N M=2
MM2 NT1 CKP NET65 VDDI pch_hvt_mac L=30N W=400N M=1
.ENDS

************************************************************************
* LIBRARY NAME: N28HP_SP_LEAFCELLS
* CELL NAME:    DECB4
* VIEW NAME:    SCHEMATIC
************************************************************************

.SUBCKT S1BHVTSSO8000Y12_DECB4 IN0A IN0B IN1A IN1B IN2 PREDEC0 PREDEC1 PREDEC2 PREDEC3 VDDHD 
+ VDDI VSSI
*.PININFO IN0A:I IN0B:I IN1A:I IN1B:I IN2:I PREDEC0:O PREDEC1:O PREDEC2:O 
*.PININFO PREDEC3:O VDDHD:B VDDI:B VSSI:B
MM19 N5 IN1B NET19 VSSI nch_hvt_mac L=30N W=420N M=1
MM20 NET0154 IN0B N5 VSSI nch_hvt_mac L=30N W=195N M=1
MM21 NET0150 IN0A N5 VSSI nch_hvt_mac L=30N W=195N M=1
MM26 NET19 IN2 VSSI VSSI nch_hvt_mac L=30N W=420N M=2
MM8 N2 IN1A NET19 VSSI nch_hvt_mac L=30N W=420N M=1
MM7 NET0138 IN0B N2 VSSI nch_hvt_mac L=30N W=195N M=1
MM0 NET0134 IN0A N2 VSSI nch_hvt_mac L=30N W=195N M=1
MM15 NET0154 IN1B VDDHD VDDI pch_hvt_mac L=30N W=200N M=1
MM16 NET0154 IN0B VDDHD VDDI pch_hvt_mac L=30N W=200N M=1
MM17 NET0150 IN1B VDDHD VDDI pch_hvt_mac L=30N W=200N M=1
MM18 NET0150 IN0A VDDHD VDDI pch_hvt_mac L=30N W=200N M=1
MM22 NET0150 IN2 VDDHD VDDI pch_hvt_mac L=30N W=200N M=1
MM23 NET0154 IN2 VDDHD VDDI pch_hvt_mac L=30N W=200N M=1
MM24 NET0138 IN2 VDDHD VDDI pch_hvt_mac L=30N W=200N M=1
MM25 NET0134 IN2 VDDHD VDDI pch_hvt_mac L=30N W=200N M=1
MM5 NET0138 IN1A VDDHD VDDI pch_hvt_mac L=30N W=200N M=1
MM4 NET0138 IN0B VDDHD VDDI pch_hvt_mac L=30N W=200N M=1
MM2 NET0134 IN1A VDDHD VDDI pch_hvt_mac L=30N W=200N M=1
MM1 NET0134 IN0A VDDHD VDDI pch_hvt_mac L=30N W=200N M=1
XINV3 NET0154 VSSI VSSI VDDHD VDDI PREDEC3 S1BHVTSSO8000Y12_INV_BULK FN=1 WN=0.195U LN=0.03U 
+ MULTI=1 FP=2 WP=0.2U LP=0.03U
XINV2 NET0150 VSSI VSSI VDDHD VDDI PREDEC2 S1BHVTSSO8000Y12_INV_BULK FN=1 WN=0.195U LN=0.03U 
+ MULTI=1 FP=2 WP=0.2U LP=0.03U
XINV1 NET0138 VSSI VSSI VDDHD VDDI PREDEC1 S1BHVTSSO8000Y12_INV_BULK FN=1 WN=0.195U LN=0.03U 
+ MULTI=1 FP=2 WP=0.2U LP=0.03U
XINV0 NET0134 VSSI VSSI VDDHD VDDI PREDEC0 S1BHVTSSO8000Y12_INV_BULK FN=1 WN=0.195U LN=0.03U 
+ MULTI=1 FP=2 WP=0.2U LP=0.03U
.ENDS

************************************************************************
* LIBRARY NAME: N28HP_SP_LEAFCELLS
* CELL NAME:    ABUF_WOBIST
* VIEW NAME:    SCHEMATIC
************************************************************************

.SUBCKT S1BHVTSSO8000Y12_ABUF_WOBIST A AC AM AXL AX1B BIST1B BIST2 CK1B CK2 VDDHD VDDI VSSI
*.PININFO A:I AM:I BIST1B:I BIST2:I CK1B:I CK2:I AC:O AXL:O AX1B:O VDDHD:B 
*.PININFO VDDI:B VSSI:B
MM23 NET0108 CK1B VSSI VSSI nch_hvt_mac L=30N W=750N M=1
MM21 NET078 AC VSSI VSSI nch_hvt_mac L=30N W=120N M=1
MM20 AXL CK2 NET078 VSSI nch_hvt_mac L=30N W=120N M=1
MM19 AXL A NET0108 VSSI nch_hvt_mac L=30N W=750N M=1
MM29 AXL A NET0145 VDDI pch_hvt_mac L=30N W=750N M=1
MM28 NET0145 CK2 VDDHD VDDI pch_hvt_mac L=30N W=0.75U M=2
MM27 NET0149 AC VDDHD VDDI pch_hvt_mac L=30N W=120N M=1
MM26 AXL CK1B NET0149 VDDI pch_hvt_mac L=30N W=120N M=1
XI25 AXL VSSI VSSI VDDHD VDDI AC S1BHVTSSO8000Y12_INV_BULK FN=3 WN=0.2U LN=0.03U MULTI=1 FP=3 
+ WP=0.3U LP=0.03U
.ENDS

************************************************************************
* LIBRARY NAME: N28HP_SP_LEAFCELLS
* CELL NAME:    ABUF_DECB4_WOBIST
* VIEW NAME:    SCHEMATIC
************************************************************************

.SUBCKT S1BHVTSSO8000Y12_ABUF_DECB4_WOBIST AX[0] AX[1] AX[2] BIST1B BIST2 CK1B CK2 IN[0] IN[1] 
+ IN[2] IN_M[0] IN_M[1] IN_M[2] OUT[0] OUT[1] OUT[2] OUT[3] OUT[4] OUT[5] 
+ OUT[6] OUT[7] VDDHD VDDI VSSI
*.PININFO BIST1B:I BIST2:I CK1B:I CK2:I IN[0]:I IN[1]:I IN[2]:I IN_M[0]:I 
*.PININFO IN_M[1]:I IN_M[2]:I AX[0]:O AX[1]:O AX[2]:O OUT[0]:O OUT[1]:O 
*.PININFO OUT[2]:O OUT[3]:O OUT[4]:O OUT[5]:O OUT[6]:O OUT[7]:O VDDHD:B VDDI:B 
*.PININFO VSSI:B
XABUF[0] IN[0] AXC[0] IN_M[0] AXT[0] AX[0] BIST1B BIST2 CK1B CK2 VDDHD VDDI 
+ VSSI S1BHVTSSO8000Y12_ABUF_WOBIST
XABUF[1] IN[1] AXC[1] IN_M[1] AXT[1] AX[1] BIST1B BIST2 CK1B CK2 VDDHD VDDI 
+ VSSI S1BHVTSSO8000Y12_ABUF_WOBIST
XABUF[2] IN[2] AXC[2] IN_M[2] AXT[2] AX[2] BIST1B BIST2 CK1B CK2 VDDHD VDDI 
+ VSSI S1BHVTSSO8000Y12_ABUF_WOBIST
XDECB4[0] AXC[0] AXT[0] AXC[1] AXT[1] AXC[2] OUT[0] OUT[1] OUT[2] OUT[3] VDDHD 
+ VDDI VSSI S1BHVTSSO8000Y12_DECB4
XDECB4[1] AXC[0] AXT[0] AXC[1] AXT[1] AXT[2] OUT[4] OUT[5] OUT[6] OUT[7] VDDHD 
+ VDDI VSSI S1BHVTSSO8000Y12_DECB4
.ENDS

************************************************************************
* LIBRARY NAME: N28HP_SP_LEAFCELLS
* CELL NAME:    DECB2
* VIEW NAME:    SCHEMATIC
************************************************************************
